simulators/grid-opentes/src/data/BT16/BT16_Loads.dss
! Cargas. P e Q sao sobrescritos pelos agentes em tempo de execucao;
! o valor aqui e o pico, usado quando se roda o circuito sozinho.

New Load.Load_4 phases=3 bus1=n4 kV=0.38 kW=7.2950 kvar=3.1077 model=1 vminpu=0.7 vmaxpu=1.4 conn=wye
New Load.Load_5 phases=3 bus1=n5 kV=0.38 kW=6.6030 kvar=2.8129 model=1 vminpu=0.7 vmaxpu=1.4 conn=wye
New Load.Load_6 phases=3 bus1=n6 kV=0.38 kW=8.6040 kvar=3.6653 model=1 vminpu=0.7 vmaxpu=1.4 conn=wye
New Load.Load_7 phases=3 bus1=n7 kV=0.38 kW=6.2900 kvar=2.6795 model=1 vminpu=0.7 vmaxpu=1.4 conn=wye
New Load.Load_8 phases=3 bus1=n8 kV=0.38 kW=8.1440 kvar=3.4693 model=1 vminpu=0.7 vmaxpu=1.4 conn=wye
New Load.Load_9 phases=3 bus1=n9 kV=0.38 kW=7.4630 kvar=3.1792 model=1 vminpu=0.7 vmaxpu=1.4 conn=wye
New Load.Load_10 phases=3 bus1=n10 kV=0.38 kW=6.2320 kvar=2.6548 model=1 vminpu=0.7 vmaxpu=1.4 conn=wye
New Load.Load_11 phases=3 bus1=n11 kV=0.38 kW=8.0300 kvar=3.4208 model=1 vminpu=0.7 vmaxpu=1.4 conn=wye
New Load.Load_13 phases=3 bus1=n13 kV=0.38 kW=8.2040 kvar=3.4949 model=1 vminpu=0.7 vmaxpu=1.4 conn=wye
New Load.Load_14 phases=3 bus1=n14 kV=0.38 kW=6.2360 kvar=2.6565 model=1 vminpu=0.7 vmaxpu=1.4 conn=wye
New Load.Load_15 phases=3 bus1=n15 kV=0.38 kW=8.2620 kvar=3.5196 model=1 vminpu=0.7 vmaxpu=1.4 conn=wye
New Load.Load_16 phases=3 bus1=n16 kV=0.38 kW=9.7900 kvar=4.1705 model=1 vminpu=0.7 vmaxpu=1.4 conn=wye
New Load.Load_17 phases=3 bus1=n17 kV=0.38 kW=8.5230 kvar=3.6308 model=1 vminpu=0.7 vmaxpu=1.4 conn=wye
New Load.Load_18 phases=3 bus1=n18 kV=0.38 kW=8.3320 kvar=3.5494 model=1 vminpu=0.7 vmaxpu=1.4 conn=wye
New Load.Load_19 phases=3 bus1=n19 kV=0.38 kW=6.2470 kvar=2.6612 model=1 vminpu=0.7 vmaxpu=1.4 conn=wye
New Load.Load_20 phases=3 bus1=n20 kV=0.38 kW=8.3420 kvar=3.5537 model=1 vminpu=0.7 vmaxpu=1.4 conn=wye
